Version 4
SHEET 1 1432 696
WIRE 336 96 160 96
WIRE 560 96 416 96
WIRE 160 240 160 96
WIRE 224 240 160 240
WIRE 368 240 304 240
WIRE 416 240 368 240
WIRE 560 240 560 96
WIRE 560 240 496 240
WIRE 160 304 160 240
WIRE 368 304 368 240
WIRE 560 304 560 240
WIRE 160 432 160 384
WIRE 368 432 368 384
WIRE 368 432 160 432
WIRE 560 432 560 384
WIRE 560 432 368 432
WIRE 368 464 368 432
FLAG 368 464 0
FLAG 160 240 n1
FLAG 368 240 n2
FLAG 560 240 n3
SYMBOL current 224 240 R270
WINDOW 0 32 40 VTop 2
WINDOW 3 -32 40 VBottom 2
SYMATTR InstName I1
SYMATTR Value 4
SYMBOL res 432 80 R90
WINDOW 0 0 56 VBottom 2
WINDOW 3 32 56 VTop 2
SYMATTR InstName R1
SYMATTR Value 1
SYMBOL res 176 400 R180
WINDOW 0 36 76 Left 2
WINDOW 3 36 40 Left 2
SYMATTR InstName R2
SYMATTR Value 8
SYMBOL res 384 400 R180
WINDOW 0 36 76 Left 2
WINDOW 3 36 40 Left 2
SYMATTR InstName R3
SYMATTR Value 2
SYMBOL res 576 400 R180
WINDOW 0 36 76 Left 2
WINDOW 3 36 40 Left 2
SYMATTR InstName R4
SYMATTR Value 4
SYMBOL bi 416 240 R270
WINDOW 0 32 40 VTop 2
WINDOW 3 -32 40 VBottom 2
SYMATTR InstName B1
SYMATTR Value I=2*I(R2)
TEXT 640 48 Left 2 ;Simulation
TEXT 648 88 Left 2 !.op
TEXT 640 144 Left 2 ;Spice Directives
RECTANGLE Normal 816 112 640 64 2
RECTANGLE Normal 1024 240 640 160 2
